\BOOKMARK [1][-]{section.1}{Introduction}{}% 1
\BOOKMARK [1][-]{section.2}{Literature Review}{}% 2
\BOOKMARK [1][-]{section.3}{Software description}{}% 3
\BOOKMARK [2][-]{subsection.3.1}{Software components}{section.3}% 4
\BOOKMARK [3][-]{subsubsection.3.1.1}{preCICE}{subsection.3.1}% 5
\BOOKMARK [3][-]{subsubsection.3.1.2}{OpenFOAM}{subsection.3.1}% 6
\BOOKMARK [3][-]{subsubsection.3.1.3}{preCICE-OpenFOAM Adapter}{subsection.3.1}% 7
\BOOKMARK [3][-]{subsubsection.3.1.4}{OpenFAST}{subsection.3.1}% 8
\BOOKMARK [2][-]{subsection.3.2}{Software concept}{section.3}% 9
\BOOKMARK [1][-]{section.4}{Example cases}{}% 10
\BOOKMARK [2][-]{subsection.4.1}{Coupling OpenFAST with a dummy CFD solver}{section.4}% 11
\BOOKMARK [2][-]{subsection.4.2}{Coupling OpenFAST with OpenFOAM}{section.4}% 12
\BOOKMARK [1][-]{section.5}{Challenges}{}% 13
\BOOKMARK [2][-]{subsection.5.1}{Mapping turbine data between actuator lines and volume meshes}{section.5}% 14
\BOOKMARK [2][-]{subsection.5.2}{Improve code maturity}{section.5}% 15
\BOOKMARK [2][-]{subsection.5.3}{Enable coupling with multiple turbines}{section.5}% 16
\BOOKMARK [2][-]{subsection.5.4}{Explore coupling scenarios with other CFD solver}{section.5}% 17
\BOOKMARK [1][-]{section.6}{Conclusion}{}% 18
